[TITLE]

[JUNCTIONS]
 001                                 150.0000
 002                                 166.0000
 003                                 166.0000
 004                                 166.0000
 005                                 150.0000
 006                                 150.0000
 007                                 170.0000
 008                                 173.0000
 009                                 165.0000
 010                                 165.0000
 011                                 164.0000
 012                                 154.0000
 013                                 160.0000
 014                                 153.0000
 015                                 170.0000
 016                                 163.0000
 017                                 164.0000
 018                                 168.0000
 019                                 168.0000
 020                                 170.0000
 021                                 170.0000
 022                                 158.0000
 023                                 155.0000
 024                                 150.0000
 025                                 166.0000
 026                                 166.0000
 027                                 160.0000
 028                                 155.0000
 029                                 164.0000
 030                                 164.0000
 031                                 165.0000
 032                                 166.0000
 033                                 166.0000
 034                                 164.0000
 035                                 165.0000
 036                                 166.0000
 037                                 170.0000
 038                                 170.0000
 039                                 170.0000
 040                                 170.0000
 041                                 166.0000
 042                                 167.0000
 043                                 168.0000
 044                                 170.0000
 045                                 153.0000
 046                                 153.0000
 047                                 153.0000
 048                                 170.0000
 049                                 153.0000
 050                                 153.0000
 051                                 153.0000
 052                                 153.0000
 053                                 154.0000
 054                                 150.0000
 055                                 151.0000
 056                                 151.0000
 057                                 151.0000
 058                                 170.0000
 059                                 170.0000
 060                                 170.0000
 061                                 171.0000
 062                                 160.0000
 063                                 170.0000
 064                                 170.0000
 065                                 170.0000
 066                                 165.0000
 067                                 165.0000
 068                                 154.0000
 069                                 155.0000
 070                                 155.0000
 071                                 155.0000
 072                                 155.0000
 073                                 155.0000
 074                                 160.0000
 075                                 170.0000
 076                                 160.0000
 077                                 165.0000
 078                                 165.0000
 079                                 178.0000
 080                                 160.0000
 081                                 175.0000
 082                                 154.0000
 083                                 175.0000
 084                                 175.0000
 085                                 170.0000
 086                                 170.0000
 087                                 170.0000
 088                                 170.0000
 089                                 150.0000
 090                                 150.0000
 091                                 155.0000
 092                                 152.0000
 093                                 164.0000
 094                                 165.0000
 095                                 164.0000
 096                                 166.0000
 097                                 166.0000
 098                                 166.0000
 099                                 166.0000
 100                                 166.0000
 101                                 166.0000
 102                                 166.0000
 103                                 166.0000
 104                                 165.0000
 105                                 170.0000
 106                                 170.0000
 107                                 170.0000
 108                                 165.0000
 109                                 155.0000
 110                                 169.0000
 111                                 164.0000
 112                                 164.0000
 113                                 170.0000
 114                                 170.0000
 115                                 170.0000
 116                                 170.0000
 117                                 170.0000
 118                                 164.0000
 119                                 165.0000
 120                                 160.0000
 121                                 154.0000
 122                                 154.0000
 123                                 154.0000
 124                                 154.0000
 125                                 154.0000
 126                                 154.0000
 127                                 154.0000
 128                                 151.0000
 129                                 151.0000
 130                                 160.0000
 131                                 160.0000
 132                                 173.0000
 133                                 173.0000
 134                                 174.0000
 135                                 170.0000
 136                                 169.0000
 137                                 168.0000
 138                                 168.0000
 139                                 169.0000
 140                                 169.0000
 141                                 169.0000
 142                                 170.0000
 143                                 160.0000
 144                                 170.0000
 145                                 170.0000
 146                                 170.0000
 147                                 170.0000
 148                                 170.0000
 149                                 170.0000
 150                                 170.0000
 151                                 170.0000
 152                                 170.0000
 153                                 170.0000
 154                                 170.0000
 155                                 170.0000
 156                                 170.0000
 157                                 170.0000
 158                                 170.0000
 159                                 170.0000
 160                                 170.0000
 161                                 170.0000
 162                                 170.0000
 163                                 170.0000
 164                                 170.0000
 165                                 169.0000
 166                                 170.0000
 167                                 160.0000
 168                                 166.0000
 169                                 170.0000
 170                                 173.0000
 171                                 160.0000
 172                                 151.0000
 173                                 173.0000
 174                                 170.0000
 175                                 170.0000
 176                                 155.0000
 177                                 164.0000

[RESERVOIRS]
 178                                   1.0000  FH                             
 179                                 175.0000 

[TANKS]
 180                                 166.0000       4.0000       1.2000       5.0000      22.5000     380.1300 

[PIPES]
 001                             003                             004                                 285.0000     500.0000      97.0000       0.0000 
 002                             004                             017                                 440.0000     500.0000      97.0000       0.0000 
 003                             005                             006                                 106.0000     500.0000      97.0000       0.0000 
 004                             006                             018                                 263.0000     500.0000      98.0000       0.0000 
 005                             018                             019                                 287.0000     500.0000      98.0000       0.0000 
 006                             019                             007                                 108.0000     500.0000      98.0000       0.0000 
 007                             009                             010                                 115.0000     500.0000     109.0000       0.0000 
 008                             010                             011                                 240.0000     400.0000     137.0000       0.0000 
 009                             011                             012                                 255.0000     300.0000     144.0000       0.0000 
 010                             012                             013                                 665.0000     300.0000     143.0000       0.0000 
 011                             013                             021                                 285.0000     300.0000     143.0000       0.0000 
 012                             001                             024                                4460.0000     400.0000     139.0000       0.0000 
 013                             023                             024                                1600.0000     400.0000     125.0000       0.0000 
 014                             023                             022                                 940.0000     400.0000      97.0000       0.0000 
 015                             022                             180                                 197.0000     400.0000     125.0000       0.0000 
 016                             002                             025                                 790.0000     400.0000     140.0000       0.0000 
 017                             025                             026                                 345.0000     400.0000     140.0000       0.0000 
 018                             026                             003                                 232.0000     400.0000     140.0000       0.0000 
 019                             016                             028                                 360.0000     150.0000     106.0000       0.0000 
 020                             029                             030                                 575.0000     100.0000     143.0000       0.0000 
 021                             030                             027                                 240.0000      80.0000     143.0000       0.0000 
 022                             031                             004                                 274.0000     100.0000     140.0000       0.0000 
 023                             033                             032                                 300.0000     100.0000     141.0000       0.0000 
 024                             034                             035                                 150.0000     100.0000     142.0000       0.0000 
 025                             036                             032                                 323.0000     150.0000     139.0000       0.0000 
 026                             003                             041                                 100.0000     400.0000     140.0000       0.0000 
 027                             041                             016                                 365.0000     400.0000     140.0000       0.0000 
 028                             041                             042                                  50.0000     150.0000      85.0000       0.0000 
 029                             042                             037                                 387.0000     150.0000      85.0000       0.0000 
 030                             037                             040                                 137.0000     200.0000     140.0000       0.0000 
 031                             038                             039                                 100.0000     200.0000      99.0000       0.0000 
 032                             043                             042                                 158.0000      80.0000      89.0000       0.0000 
 033                             038                             048                                 140.0000     150.0000     139.0000       0.0000 
 034                             049                             048                                 182.0000     150.0000     142.0000       0.0000 
 035                             049                             050                                 100.0000     150.0000     100.0000       0.0000 
 036                             050                             045                                 100.0000     150.0000     100.0000       0.0000 
 037                             050                             047                                 396.0000      80.0000     141.0000       0.0000 
 038                             044                             015                                 130.0000     200.0000      99.0000       0.0000 
 039                             046                             045                                 551.0000     100.0000     142.0000       0.0000 
 040                             051                             045                                1000.0000     100.0000     142.0000       0.0000 
 041                             047                             014                                 225.0000      80.0000      63.0000       0.0000 
 042                             051                             053                                  43.0000      80.0000      41.0000       0.0000 
 043                             052                             014                                 140.0000      80.0000     120.0000       0.0000 
 044                             054                             028                                 171.0000     100.0000      64.0000       0.0000 
 045                             057                             055                                 173.0000     125.0000      78.0000       0.0000 
 046                             055                             056                                 200.0000     125.0000      89.0000       0.0000 
 047                             056                             013                                 500.0000     100.0000      64.0000       0.0000 
 048                             021                             059                                 263.0000     300.0000     103.0000       0.0000 
 049                             059                             058                                 100.0000     300.0000     103.0000       0.0000 
 050                             063                             062                                 564.0000     100.0000     141.0000       0.0000 
 051                             062                             046                                 137.0000     100.0000     141.0000       0.0000 
 052                             067                             066                                 165.0000     200.0000      99.0000       0.0000 
 053                             068                             057                                 100.0000     200.0000      47.0000       0.0000 
 054                             054                             072                                 105.0000     125.0000      38.0000       0.0000 
 055                             073                             069                                  60.0000     150.0000     141.0000       0.0000 
 056                             069                             070                                  70.0000     150.0000     141.0000       0.0000 
 057                             071                             074                                 120.0000     150.0000     127.0000       0.0000 
 058                             076                             044                                 170.0000      80.0000      75.0000       0.0000 
 059                             078                             077                                 269.0000     150.0000     141.0000       0.0000 
 060                             079                             008                                 269.0000     250.0000     127.0000       0.0000 
 061                             008                             080                                  80.0000     100.0000     127.0000       0.0000 
 062                             080                             074                                 120.0000     150.0000     127.0000       0.0000 
 063                             077                             067                                 164.0000     300.0000     102.0000       0.0000 
 064                             077                             010                                 205.0000     300.0000     102.0000       0.0000 
 065                             082                             012                                 285.0000      80.0000     133.0000       0.0000 
 066                             082                             074                                 120.0000     100.0000     132.0000       0.0000 
 067                             081                             083                                 203.0000     100.0000     142.0000       0.0000 
 068                             084                             007                                 693.0000     500.0000     103.0000       0.0000 
 069                             086                             087                                 620.0000     150.0000     127.0000       0.0000 
 070                             087                             018                                  80.0000     200.0000     139.0000       0.0000 
 071                             087                             088                                 600.0000     150.0000     127.0000       0.0000 
 072                             091                             089                                 180.0000     100.0000     120.0000       0.0000 
 073                             089                             005                                 156.0000     200.0000     100.0000       0.0000 
 074                             089                             090                                 237.0000     200.0000     100.0000       0.0000 
 075                             090                             080                                1450.0000     150.0000      84.0000       0.0000 
 076                             090                             072                                 974.0000     150.0000     127.0000       0.0000 
 077                             014                             015                                 387.0000     300.0000     139.0000       0.0000 
 078                             093                             095                                 100.0000     100.0000     141.0000       0.0000 
 079                             095                             029                                 292.0000      80.0000     120.0000       0.0000 
 080                             095                             094                                 347.0000     100.0000     145.0000       0.0000 
 081                             094                             031                                  85.0000     150.0000     140.0000       0.0000 
 082                             094                             032                                 190.0000     150.0000     144.0000       0.0000 
 083                             035                             093                                 590.0000     100.0000     142.0000       0.0000 
 084                             025                             036                                 380.0000     250.0000     100.0000       0.0000 
 085                             036                             096                                 379.0000     250.0000     140.0000       0.0000 
 086                             096                             002                                 585.0000     150.0000     140.0000       0.0000 
 087                             027                             017                                 380.0000     100.0000     120.0000       0.0000 
 088                             017                             005                                 624.0000     500.0000      97.0000       0.0000 
 089                             017                             029                                 138.0000      80.0000     104.0000       0.0000 
 090                             021                             055                                 758.0000     300.0000     103.0000       0.0000 
 091                             014                             055                                 440.0000     300.0000     139.0000       0.0000 
 092                             055                             051                                 150.0000      80.0000      89.0000       0.0000 
 093                             099                             100                                  50.0000     100.0000      97.0000       0.0000 
 094                             100                             033                                  70.0000     100.0000      97.0000       0.0000 
 095                             026                             097                                  30.0000     150.0000     120.0000       0.0000 
 096                             097                             101                                 200.0000     100.0000      97.0000       0.0000 
 097                             099                             098                                 100.0000     150.0000     120.0000       0.0000 
 098                             098                             097                                 100.0000     150.0000      97.0000       0.0000 
 099                             098                             101                                 140.0000     100.0000      75.0000       0.0000 
 100                             102                             033                                  59.0000     100.0000     141.0000       0.0000 
 101                             102                             100                                  83.0000     100.0000      89.0000       0.0000 
 102                             026                             103                                 100.0000     150.0000      98.0000       0.0000 
 103                             103                             104                                 220.0000     100.0000      89.0000       0.0000 
 104                             104                             026                                 617.0000     100.0000      89.0000       0.0000 
 105                             104                             043                                 104.0000     100.0000      89.0000       0.0000 
 106                             115                             113                                 100.0000     100.0000     132.0000       0.0000 
 107                             113                             040                                  20.0000     100.0000     120.0000       0.0000 
 108                             114                             113                                  72.0000     100.0000     137.0000       0.0000 
 109                             114                             039                                 100.0000     100.0000     137.0000       0.0000 
 110                             114                             116                                 100.0000     100.0000     120.0000       0.0000 
 111                             116                             115                                 100.0000     100.0000      89.0000       0.0000 
 112                             116                             038                                 100.0000     100.0000      89.0000       0.0000 
 113                             039                             108                                  85.0000     150.0000      97.0000       0.0000 
 114                             108                             112                                  45.0000     100.0000      89.0000       0.0000 
 115                             111                             112                                 100.0000     100.0000     141.0000       0.0000 
 116                             048                             111                                  75.0000     100.0000     127.0000       0.0000 
 117                             111                             109                                  93.0000      80.0000     137.0000       0.0000 
 118                             047                             112                                 235.0000     100.0000      89.0000       0.0000 
 119                             112                             109                                  80.0000     100.0000      89.0000       0.0000 
 120                             109                             049                                  20.0000     100.0000      89.0000       0.0000 
 121                             107                             108                                  60.0000     100.0000     120.0000       0.0000 
 122                             105                             107                                  90.0000      80.0000      97.0000       0.0000 
 123                             105                             039                                  50.0000     200.0000      99.0000       0.0000 
 124                             105                             106                                  50.0000     200.0000      99.0000       0.0000 
 125                             117                             040                                 213.0000     100.0000     120.0000       0.0000 
 126                             117                             106                                 175.0000     100.0000      89.0000       0.0000 
 127                             117                             015                                 113.0000     100.0000     120.0000       0.0000 
 128                             044                             106                                  65.0000     200.0000      99.0000       0.0000 
 129                             044                             110                                  37.0000      80.0000      89.0000       0.0000 
 130                             110                             107                                 200.0000     100.0000      75.0000       0.0000 
 131                             110                             076                                 157.0000      80.0000     137.0000       0.0000 
 132                             043                             115                                 253.0000     100.0000     141.0000       0.0000 
 133                             034                             118                                  86.0000     100.0000     142.0000       0.0000 
 134                             118                             030                                 120.0000      80.0000     141.0000       0.0000 
 135                             118                             029                                 386.0000     100.0000     142.0000       0.0000 
 136                             119                             093                                 100.0000     100.0000     141.0000       0.0000 
 137                             119                             031                                 100.0000     100.0000     141.0000       0.0000 
 138                             119                             035                                 545.0000     100.0000     142.0000       0.0000 
 139                             053                             052                                 200.0000     100.0000     142.0000       0.0000 
 140                             053                             120                                 335.0000     100.0000      89.0000       0.0000 
 141                             120                             076                                  10.0000     100.0000     120.0000       0.0000 
 142                             052                             120                                  85.0000     100.0000     120.0000       0.0000 
 143                             057                             129                                  20.0000     100.0000      41.0000       0.0000 